flow-decomposition/src/test/resources/com/powsybl/flow_decomposition/lossesCompensatorLineConnectedToOneSide.xiidm
<?xml version="1.0" encoding="UTF-8"?>
<iidm:network xmlns:iidm="http://www.powsybl.org/schema/iidm/1_12" id="test" caseDate="2024-05-27T13:09:06.308Z" forecastDistance="0" sourceFormat="code" minimumValidationLevel="STEADY_STATE_HYPOTHESIS">
    <iidm:substation id="b1_s" country="FR">
        <iidm:voltageLevel id="b1_vl" nominalV="1.0" topologyKind="BUS_BREAKER">
            <iidm:busBreakerTopology>
                <iidm:bus id="b1"/>
            </iidm:busBreakerTopology>
            <iidm:generator id="g1" energySource="OTHER" minP="0.0" maxP="6.0" voltageRegulatorOn="true" targetP="3.0" targetV="1.0" bus="b1" connectableBus="b1" p="-3.0" q="0.0">
                <iidm:minMaxReactiveLimits minQ="-1.7976931348623157E308" maxQ="1.7976931348623157E308"/>
            </iidm:generator>
        </iidm:voltageLevel>
    </iidm:substation>
    <iidm:substation id="b2_s" country="BE">
        <iidm:voltageLevel id="b2_vl" nominalV="1.0" topologyKind="BUS_BREAKER">
            <iidm:busBreakerTopology>
                <iidm:bus id="b2"/>
            </iidm:busBreakerTopology>
            <iidm:load id="d2" loadType="UNDEFINED" p0="2.0" q0="0.0" bus="b2" connectableBus="b2" p="2.0" q="0.0"/>
        </iidm:voltageLevel>
    </iidm:substation>
    <iidm:substation id="b3_s" country="BE">
        <iidm:voltageLevel id="b3_vl" nominalV="1.0" topologyKind="BUS_BREAKER">
            <iidm:busBreakerTopology>
                <iidm:bus id="b3"/>
            </iidm:busBreakerTopology>
            <iidm:load id="d3" loadType="UNDEFINED" p0="1" q0="0.0" bus="b3" connectableBus="b3" p="1" q="0.0"/>
        </iidm:voltageLevel>
    </iidm:substation>
    <iidm:line id="l21" r="0.01" x="0.1" g1="0.0" b1="0.5" g2="0.0" b2="0.5" voltageLevelId1="b2_vl" bus1="b2" connectableBus1="b2" voltageLevelId2="b1_vl" bus2="b1" connectableBus2="b1"/>
    <iidm:line id="l32" r="0.01" x="0.1" g1="0.0" b1="0.5" g2="0.0" b2="0.5" voltageLevelId1="b3_vl" connectableBus1="b3" voltageLevelId2="b2_vl" bus2="b2" connectableBus2="b2"/>
</iidm:network>
